# File generated by Flopy version 3.6.0.dev0 on 02/07/2024 at 20:14:53.
BEGIN options
  SAVE_FLOWS
END options

BEGIN packages
  DIS6  case1-10.dis  dis
  OBS6  case1-10.obs  obs_0
  IC6  case1-10.ic  ic
  NPF6  case1-10.npf  npf
  STO6  case1-10.sto  sto
  CSUB6  case1-10.csub  csub
  CHD6  case1-10.chd  chd_0
  OC6  case1-10.oc  oc
END packages

