# File generated by Flopy version 3.6.0.dev0 on 02/07/2024 at 20:14:53.
BEGIN options
  SAVE_FLOWS
END options

BEGIN packages
  DIS6  case3-2.5e-06.dis  dis
  OBS6  case3-2.5e-06.obs  obs_0
  IC6  case3-2.5e-06.ic  ic
  NPF6  case3-2.5e-06.npf  npf
  STO6  case3-2.5e-06.sto  sto
  CSUB6  case3-2.5e-06.csub  csub
  CHD6  case3-2.5e-06.chd  chd_0
  OC6  case3-2.5e-06.oc  oc
END packages

