# File generated by Flopy version 3.6.0.dev0 on 02/07/2024 at 20:14:53.
BEGIN options
END options

BEGIN timing
  TDIS6  case3-0.025.tdis
END timing

BEGIN models
  gwf6  case3-0.025.nam  case3-0.025
END models

BEGIN exchanges
END exchanges

BEGIN solutiongroup  1
  ims6  case3-0.025.ims  case3-0.025
END solutiongroup  1

