# File generated by Flopy version 3.6.0.dev0 on 02/07/2024 at 20:14:53.
BEGIN options
  SAVE_FLOWS
END options

BEGIN packages
  DIS6  case3-0.00025.dis  dis
  OBS6  case3-0.00025.obs  obs_0
  IC6  case3-0.00025.ic  ic
  NPF6  case3-0.00025.npf  npf
  STO6  case3-0.00025.sto  sto
  CSUB6  case3-0.00025.csub  csub
  CHD6  case3-0.00025.chd  chd_0
  OC6  case3-0.00025.oc  oc
END packages

