# File generated by Flopy version 3.6.0.dev0 on 02/07/2024 at 20:14:53.
BEGIN options
  SAVE_FLOWS
END options

BEGIN packages
  DIS6  case2.dis  dis
  OBS6  case2.obs  obs_0
  IC6  case2.ic  ic
  NPF6  case2.npf  npf
  STO6  case2.sto  sto
  CSUB6  case2.csub  csub
  CHD6  case2.chd  chd_0
  OC6  case2.oc  oc
END packages

