# File generated by Flopy version 3.6.0.dev0 on 02/07/2024 at 20:14:53.
BEGIN options
END options

BEGIN timing
  TDIS6  case2.tdis
END timing

BEGIN models
  gwf6  case2.nam  case2
END models

BEGIN exchanges
END exchanges

BEGIN solutiongroup  1
  ims6  case2.ims  case2
END solutiongroup  1

